L24/1726524/MASTER-1726524.dss
clear
set defaultbasefrequency=60

! ==========================================================================
!  1726524 — subestacao isolada
!  10 alimentadores | 22,118 barras de MT
! ==========================================================================
!  Modelo para estudo de alimentador. A fonte esta na barra de MT, com o
!  equivalente de curto do patio de AT desta subestacao — os alimentadores
!  dividem a mesma barra, como na operacao real.
!
!  Para a rede completa, com a subtransmissao e as demais subestacoes,
!  use ../MASTER-GERAL.dss.
! ==========================================================================

New Circuit.1726524 basekV=13.8 pu=1.0400 phases=3 bus1=11413474 Angle=0
~ MVAsc3=928 MVAsc1=742.4

redirect LineCodes.dss
redirect Curvas.dss
redirect _XYCURVES.dss
redirect REDE-1726524.dss


! ------------------------------------------------------------------ medicao
! EnergyMeter na entrada de cada alimentador (no vao de saida). E o que
! permite apurar perdas, energia e sobrecarga POR ALIMENTADOR — o Monitor
! sozinho registra grandeza, nao acumula perdas.
!   Show Meters          resumo por alimentador
!   Show Losses          perdas por elemento
!   Export Meters        planilha com kWh, perdas e violacoes
New EnergyMeter.EM_AFNU25 element=Line.VAO_AFNU25 terminal=1
New EnergyMeter.EM_AFNU16 element=Line.VAO_AFNU16 terminal=1
New EnergyMeter.EM_AFNU21 element=Line.VAO_AFNU21 terminal=1
New EnergyMeter.EM_AFNU23 element=Line.VAO_AFNU23 terminal=1
New EnergyMeter.EM_AFNU24 element=Line.VAO_AFNU24 terminal=1
New EnergyMeter.EM_AFNU18 element=Line.VAO_AFNU18 terminal=1
New EnergyMeter.EM_AFNU22 element=Line.VAO_AFNU22 terminal=1
New EnergyMeter.EM_AFNU15 element=Line.VAO_AFNU15 terminal=1
New EnergyMeter.EM_AFNU14 element=Line.VAO_AFNU14 terminal=1
New EnergyMeter.EM_AFNU17 element=Line.VAO_AFNU17 terminal=1
! Monitores de potencia nos transformadores de potencia (AT -> MT).
! sem trafos de AT
! Monitores de corrente nos troncos de subtransmissao.
! sem linhas de AT

Set Voltagebases=[88 13.8 0.44 0.38 0.24 0.23 0.22 0.208]
CalcVoltagebases

Set maxcontroliter=200
Set maxiterations=100
Set controlmode=static

redirect _CHAVES_ABERTAS.dss

! Premissa de modelagem, e nao conversao — achado 34. Vazio quando a base nao
! tem trecho conduzindo acima da propria ampacidade. Apagar esta linha devolve
! o modelo ao que a BDGD declara.
redirect _AMPACIDADE.dss

! Premissa de modelagem que INVENTA um elo — achado 33, forma B. Vazio ate
! alguem rodar `ligacao.py`. Apagar esta linha devolve o modelo a topologia
! que a BDGD declara.
redirect _LIGACAO.dss

Set mode=snap
Solve
CalcVoltagebases
Solve

! coordenadas — depois do Solve, quando a lista de barras ja existe
Buscoords BusCoords.dat
